Input Parameters:
   integrator                     = md
   tinit                          = 0
   dt                             = 0.002
   nsteps                         = 50000
   init-step                      = 0
   simulation-part                = 1
   mts                            = false
   comm-mode                      = Linear
   nstcomm                        = 100
   bd-fric                        = 0
   ld-seed                        = -3230493
   emtol                          = 10
   emstep                         = 0.01
   niter                          = 20
   fcstep                         = 0
   nstcgsteep                     = 1000
   nbfgscorr                      = 10
   rtpi                           = 0.05
   nstxout                        = 500
   nstvout                        = 500
   nstfout                        = 0
   nstlog                         = 500
   nstcalcenergy                  = 100
   nstenergy                      = 500
   nstxout-compressed             = 0
   compressed-x-precision         = 1000
   cutoff-scheme                  = Verlet
   nstlist                        = 10
   pbc                            = xyz
   periodic-molecules             = false
   verlet-buffer-tolerance        = 0.005
   rlist                          = 0.702
   coulombtype                    = PME
   coulomb-modifier               = Potential-shift
   rcoulomb-switch                = 0
   rcoulomb                       = 0.7
   epsilon-r                      = 1
   epsilon-rf                     = inf
   vdw-type                       = Cut-off
   vdw-modifier                   = Potential-shift
   rvdw-switch                    = 0
   rvdw                           = 0.7
   DispCorr                       = No
   table-extension                = 1
   fourierspacing                 = 0.12
   fourier-nx                     = 60
   fourier-ny                     = 60
   fourier-nz                     = 60
   pme-order                      = 4
   ewald-rtol                     = 1e-05
   ewald-rtol-lj                  = 0.001
   lj-pme-comb-rule               = Geometric
   ewald-geometry                 = 3d
   epsilon-surface                = 0
   ensemble-temperature-setting   = constant
   ensemble-temperature           = 300
   tcoupl                         = V-rescale
   nsttcouple                     = 10
   nh-chain-length                = 0
   print-nose-hoover-chain-variables = false
   pcoupl                         = No
   pcoupltype                     = Isotropic
   nstpcouple                     = -1
   tau-p                          = 1
   compressibility (3x3):
      compressibility[    0]={ 0.00000e+00,  0.00000e+00,  0.00000e+00}
      compressibility[    1]={ 0.00000e+00,  0.00000e+00,  0.00000e+00}
      compressibility[    2]={ 0.00000e+00,  0.00000e+00,  0.00000e+00}
   ref-p (3x3):
      ref-p[    0]={ 0.00000e+00,  0.00000e+00,  0.00000e+00}
      ref-p[    1]={ 0.00000e+00,  0.00000e+00,  0.00000e+00}
      ref-p[    2]={ 0.00000e+00,  0.00000e+00,  0.00000e+00}
   refcoord-scaling               = No
   posres-com (3):
      posres-com[0]= 0.00000e+00
      posres-com[1]= 0.00000e+00
      posres-com[2]= 0.00000e+00
   posres-comB (3):
      posres-comB[0]= 0.00000e+00
      posres-comB[1]= 0.00000e+00
      posres-comB[2]= 0.00000e+00
   QMMM                           = false
qm-opts:
   ngQM                           = 0
   constraint-algorithm           = Lincs
   continuation                   = false
   Shake-SOR                      = false
   shake-tol                      = 0.0001
   lincs-order                    = 4
   lincs-iter                     = 1
   lincs-warnangle                = 30
   nwall                          = 0
   wall-type                      = 9-3
   wall-r-linpot                  = -1
   wall-atomtype[0]               = -1
   wall-atomtype[1]               = -1
   wall-density[0]                = 0
   wall-density[1]                = 0
   wall-ewald-zfac                = 3
   pull                           = true
   pull-cylinder-r                = 1.5
   pull-constr-tol                = 1e-06
   pull-print-COM                 = false
   pull-print-ref-value           = false
   pull-print-components          = false
   pull-nstxout                   = 100
   pull-nstfout                   = 100
   pull-pbc-ref-prev-step-com     = true
   pull-xout-average              = false
   pull-fout-average              = false
   pull-ngroups                   = 3
   pull-group 0:
     atom: not available
     weight: not available
     pbcatom                        = -1
   pull-group 1:
     atom (263):
        atom[0,...,262] = {0,...,262}
     weight: not available
     pbcatom                        = 0
   pull-group 2:
     atom (209):
        atom[0]=0
        atom[1,...,3] = {4,...,6}
        atom[4,...,6] = {8,...,10}
        atom[7,...,13] = {12,...,18}
        atom[14,...,16] = {20,...,22}
        atom[17,...,20] = {24,...,27}
        atom[21,...,28] = {29,...,36}
        atom[29,...,32] = {38,...,41}
        atom[33,...,37] = {43,...,47}
        atom[38,...,41] = {49,...,52}
        atom[42,...,49] = {54,...,61}
        atom[50,...,55] = {63,...,68}
        atom[56,...,58] = {72,...,74}
        atom[59,...,66] = {76,...,83}
        atom[67,...,69] = {85,...,87}
        atom[70,...,72] = {89,...,91}
        atom[73,...,77] = {93,...,97}
        atom[78]=99
        atom[79]=101
        atom[80,...,82] = {103,...,105}
        atom[83,...,85] = {107,...,109}
        atom[86,...,89] = {111,...,114}
        atom[90,...,92] = {116,...,118}
        atom[93,...,103] = {120,...,130}
        atom[104,...,107] = {132,...,135}
        atom[108]=137
        atom[109]=138
        atom[110]=140
        atom[111]=141
        atom[112]=143
        atom[113]=145
        atom[114]=147
        atom[115,...,117] = {149,...,151}
        atom[118,...,120] = {153,...,155}
        atom[121,...,124] = {157,...,160}
        atom[125,...,129] = {162,...,166}
        atom[130,...,139] = {169,...,178}
        atom[140,...,144] = {180,...,184}
        atom[145,...,152] = {186,...,193}
        atom[153,...,157] = {195,...,199}
        atom[158,...,162] = {201,...,205}
        atom[163,...,167] = {207,...,211}
        atom[168,...,175] = {213,...,220}
        atom[176,...,180] = {222,...,226}
        atom[181,...,185] = {228,...,232}
        atom[186,...,191] = {234,...,239}
        atom[192,...,194] = {242,...,244}
        atom[195,...,200] = {246,...,251}
        atom[201,...,203] = {254,...,256}
        atom[204,...,208] = {258,...,262}
     weight: not available
     pbcatom                        = 0
   pull-ncoords                   = 1
   pull-coord 0:
   type                           = umbrella
   geometry                       = distance
   group[0]                       = 1
   group[1]                       = 2
   dim (3):
      dim[0]=1
      dim[1]=1
      dim[2]=1
   origin (3):
      origin[0]= 0.00000e+00
      origin[1]= 0.00000e+00
      origin[2]= 0.00000e+00
   vec (3):
      vec[0]= 0.00000e+00
      vec[1]= 0.00000e+00
      vec[2]= 0.00000e+00
   start                          = false
   init                           = 0
   rate                           = 0.01
   k                              = 1000
   kB                             = 1000
   awh                            = false
   rotation                       = false
   interactiveMD                  = false
   disre                          = No
   disre-weighting                = Conservative
   disre-mixed                    = false
   dr-fc                          = 1000
   dr-tau                         = 0
   nstdisreout                    = 100
   orire-fc                       = 0
   orire-tau                      = 0
   nstorireout                    = 100
   free-energy                    = no
   cos-acceleration               = 0
   deform (3x3):
      deform[    0]={ 0.00000e+00,  0.00000e+00,  0.00000e+00}
      deform[    1]={ 0.00000e+00,  0.00000e+00,  0.00000e+00}
      deform[    2]={ 0.00000e+00,  0.00000e+00,  0.00000e+00}
   simulated-tempering            = false
   swapcoords                     = no
   userint1                       = 0
   userint2                       = 0
   userint3                       = 0
   userint4                       = 0
   userreal1                      = 0
   userreal2                      = 0
   userreal3                      = 0
   userreal4                      = 0
   applied-forces:
     electric-field:
       x:
         E0                       = 0
         omega                    = 0
         t0                       = 0
         sigma                    = 0
       y:
         E0                       = 0
         omega                    = 0
         t0                       = 0
         sigma                    = 0
       z:
         E0                       = 0
         omega                    = 0
         t0                       = 0
         sigma                    = 0
     density-guided-simulation:
       active                     = false
       group                      = protein
       similarity-measure         = inner-product
       atom-spreading-weight      = unity
       force-constant             = 1e+09
       gaussian-transform-spreading-width = 0.2
       gaussian-transform-spreading-range-in-multiples-of-width = 4
       reference-density-filename = reference.mrc
       nst                        = 1
       normalize-densities        = true
       adaptive-force-scaling     = false
       adaptive-force-scaling-time-constant = 4
       shift-vector               =
       transformation-matrix      =
     qmmm-cp2k:
       active                     = false
       qmgroup                    = System
       qmmethod                   = PBE
       qmfilenames                =
       qmcharge                   = 0
       qmmultiplicity             = 1
grpopts:
   nrdf:         786
   ref-t:         300
   tau-t:         0.1
annealing:          No
annealing-npoints:           0
   acc:	           0           0           0
   nfreeze:           N           N           N
   energygrp-flags[  0]: 0

Changing nstlist from 10 to 40, rlist from 0.702 to 0.782

When checking whether update groups are usable:
  No constraints or virtual sites are in use, so it is best not to use update groups

Initializing Domain Decomposition on 1 ranks
Dynamic load balancing: auto
Minimum cell size due to atom displacement: 0.754 nm
Initial maximum distances in bonded interactions:
    two-body bonded interactions: 0.392 nm, LJ-14, atoms 25 26
  multi-body bonded interactions: 0.390 nm, Proper Dih., atoms 208 214
Minimum cell size due to bonded interactions: 0.430 nm
Using 0 separate PME ranks because: there are too few total ranks for efficient splitting
Optimizing the DD grid for 1 cells with a minimum initial size of 0.754 nm
The maximum allowed number of cells is: X 9 Y 9 Z 9
Domain decomposition grid 1 x 1 x 1, separate PME ranks 0
PME domain decomposition: 1 x 1 x 1

The initial number of communication pulses is:
The initial domain decomposition cell size is:

The maximum allowed distance for atoms involved in interactions is:
                 non-bonded interactions           0.782 nm
            two-body bonded interactions  (-rdd)   0.782 nm
          multi-body bonded interactions  (-rdd)   0.782 nm

When dynamic load balancing gets turned on, these settings will change to:
The maximum number of communication pulses is:
The minimum size for domain decomposition cells is 0.782 nm
The requested allowed shrink of DD cells (option -dds) is: 0.80
The allowed shrink of domain decomposition cells is:
The maximum allowed distance for atoms involved in interactions is:
                 non-bonded interactions           0.782 nm
            two-body bonded interactions  (-rdd)   0.782 nm
          multi-body bonded interactions  (-rdd)   0.782 nm

Using 1 MPI thread
Using 2 OpenMP threads

System total charge: -1.000
Will do PME sum in reciprocal space for electrostatic interactions.

Using a Gaussian width (1/beta) of 0.224114 nm for Ewald
Potential shift: LJ r^-12: -7.225e+01 r^-6: -8.500e+00, Ewald -1.429e-05
Initialized non-bonded Coulomb Ewald tables, spacing: 7.81e-04 size: 898

Generated table with 891 data points for 1-4 COUL.
Tabscale = 500 points/nm
Generated table with 891 data points for 1-4 LJ6.
Tabscale = 500 points/nm
Generated table with 891 data points for 1-4 LJ12.
Tabscale = 500 points/nm

Using SIMD 4x8 nonbonded short-range kernels

Using a dual 4x8 pair-list setup updated with dynamic pruning:
  outer list: updated every 40 steps, buffer 0.082 nm, rlist 0.782 nm
  inner list: updated every  9 steps, buffer 0.001 nm, rlist 0.701 nm
At tolerance 0.005 kJ/mol/ps per atom, equivalent classical 1x1 list would be:
  outer list: updated every 40 steps, buffer 0.209 nm, rlist 0.909 nm
  inner list: updated every  9 steps, buffer 0.014 nm, rlist 0.714 nm

The non-bonded pair calculation algorithm tolerates a few missing pair interactions close to the cut-off. This can lead to a systematic overestimation of the pressure due to missing LJ interactions. The error in the average pressure due to missing LJ interactions is at most 3.08 bar.
The pressure error can be controlled by setting the environment variable GMX_VERLET_BUFFER_PRESSURE_TOLERANCE to the allowed error in units of bar.

Using full Lennard-Jones parameter combination matrix
Removing pbc first time

Linking all bonded interactions to atoms

Pinning threads with an auto-selected logical cpu stride of 1

Will apply potential COM pulling
with 1 pull coordinate and 2 groups
Pull group 1:   263 atoms, mass  2963.245
Pull group 2:   209 atoms, mass  2908.813

There are: 263 Atoms
Atom distribution over 1 domains: av 263 stddev 0 min 263 max 263
Center of mass motion removal mode is Linear
We have the following groups for center of mass motion removal:
  0:  rest
Initial temperature: 0 K

Started mdrun on rank 0 Sun Dec  7 06:33:17 2025

           Step           Time
              0        0.00000

   Energies (kJ/mol)
        G96Bond       G96Angle    Proper Dih.  Improper Dih.          LJ-14
    1.72436e+02    4.82766e+02    3.37540e+02    8.95501e+01    6.36277e+01
     Coulomb-14        LJ (SR)   Coulomb (SR)   Coul. recip.   COM Pull En.
    4.56050e+03   -8.89140e+01   -7.72204e+03    1.42215e+03    5.15967e-03
      Potential    Kinetic En.   Total Energy  Conserved En.    Temperature
   -6.82379e+02    8.46301e+01   -5.97749e+02   -5.97749e+02    2.58999e+01
    2.59022e+02

	<====  A V E R A G E S  ====>

	Statistics over 50001 steps using 501 frames

   Energies (kJ/mol)
        G96Bond       G96Angle    Proper Dih.  Improper Dih.          LJ-14
    3.53478e+02    4.98401e+02    3.42294e+02    1.44814e+02    2.18117e+01
     Coulomb-14        LJ (SR)   Coulomb (SR)   Coul. recip.   COM Pull En.
    4.47878e+03   -1.97646e+02   -8.01382e+03    6.28882e+02    1.66500e+02
      Potential    Kinetic En.   Total Energy  Conserved En.    Temperature
   -1.57651e+03    9.76099e+02   -6.00411e+02   -3.70461e+02    2.98722e+02
 Pressure (bar)
    1.14561e+00

   Total Virial (kJ/mol)
    3.05100e+02   -1.82868e+01   -9.42046e+00
   -1.82870e+01    3.05078e+02   -1.75518e+01
   -9.42008e+00   -1.75517e+01    3.33469e+02

   Pressure (bar)
    2.17534e+00    2.12298e+00    9.89649e-01
    2.12300e+00    2.05066e+00    2.09006e+00
    9.89608e-01    2.09004e+00   -7.89172e-01
